ROOT
ATOM      1  C13 T27 A 557      47.272 -29.026  39.801  1.00 25.09     0.538 A 
ATOM      2  C14 T27 A 557      47.742 -29.014  38.466  1.00 23.67     2.969 A 
ATOM      3  H14 T27 A 557      47.627 -29.914  37.838  1.00  0.00     0.000 H 
ATOM      4  C15 T27 A 557      48.356 -27.862  37.930  1.00 27.38     1.876 A 
ATOM      5  H15 T27 A 557      48.716 -27.878  36.888  1.00  0.00     0.000 H 
ATOM      6  C16 T27 A 557      48.521 -26.674  38.710  1.00 27.55     0.473 A 
ATOM      7  C17 T27 A 557      48.034 -26.703  40.059  1.00 21.87    -0.866 A 
ATOM      8  H17 T27 A 557      48.144 -25.805  40.690  1.00  0.00     0.000 H 
ATOM      9  C18 T27 A 557      47.413 -27.862  40.602  1.00 27.25    -0.619 A 
ATOM     10  H18 T27 A 557      47.043 -27.856  41.641  1.00  0.00     0.000 H 
ATOM     11  N5  T27 A 557      46.171 -31.182  40.761  1.00 26.72    17.532 NA
ATOM     12  C19 T27 A 557      46.659 -30.214  40.334  1.00 29.50     6.094 C 
ENDROOT
BRANCH   6  13
ATOM     13  N4  T27 A 557      49.134 -25.502  38.206  1.00 25.92    -0.349 N 
ATOM     14  H4  T27 A 557      50.068 -25.351  38.587  1.00  0.00     0.000 HD
BRANCH  13  15
ATOM     15  C12 T27 A 557      48.750 -24.506  37.306  1.00 26.30    -0.011 A 
ATOM     16  N3  T27 A 557      49.452 -23.380  37.206  1.00 22.76     0.289 N 
ATOM     17  C11 T27 A 557      49.076 -22.407  36.332  1.00 25.85     3.493 A 
ATOM     18  H3  T27 A 557      50.278 -23.246  37.789  1.00  0.00     0.000 HD
ATOM     19  C10 T27 A 557      47.948 -22.539  35.515  1.00 25.43     4.413 A 
ATOM     20  C9  T27 A 557      47.251 -23.748  35.669  1.00 23.08     2.795 A 
ATOM     21  H10 T27 A 557      47.632 -21.756  34.806  1.00  0.00     0.000 H 
ATOM     22  N2  T27 A 557      47.631 -24.737  36.558  1.00 25.29     1.340 N 
ATOM     23  H9  T27 A 557      46.354 -23.918  35.050  1.00  0.00     0.000 H 
ATOM     24  H2  T27 A 557      47.099 -25.603  36.651  1.00  0.00     0.000 HD
BRANCH  17  25
ATOM     25  N1  T27 A 557      49.874 -21.247  36.296  1.00 19.93     3.521 N 
ATOM     26  H1  T27 A 557      49.540 -20.404  36.762  1.00  0.00     0.000 HD
BRANCH  25  27
ATOM     27  C6  T27 A 557      51.125 -21.215  35.635  1.00 22.06     0.103 A 
ATOM     28  C5  T27 A 557      51.225 -21.697  34.265  1.00 27.85     1.217 A 
ATOM     29  C4  T27 A 557      52.472 -21.683  33.608  1.00 26.06     0.413 A 
ATOM     30  C3  T27 A 557      53.632 -21.191  34.222  1.00 25.95    -0.206 A 
ATOM     31  H4  T27 A 557      52.538 -22.071  32.577  1.00  0.00     0.000 H 
ATOM     32  C2  T27 A 557      53.547 -20.704  35.563  1.00 24.94    -0.166 A 
ATOM     33  C1  T27 A 557      52.296 -20.699  36.273  1.00 29.53    -0.337 A 
ATOM     34  H2  T27 A 557      54.457 -20.326  36.061  1.00  0.00     0.000 H 
BRANCH  28  35
ATOM     35  C8  T27 A 557      50.047 -22.257  33.497  1.00 23.50     5.748 C 
ATOM     36  H83 T27 A 557      49.949 -21.720  32.525  1.00  0.00     0.000 H 
ATOM     37  H82 T27 A 557      50.290 -23.285  33.142  1.00  0.00     0.000 H 
ATOM     38  H81 T27 A 557      49.061 -22.268  34.017  1.00  0.00     0.000 H 
ENDBRANCH  28  35
ENDBRANCH  25  27
ENDBRANCH  17  25
ENDBRANCH  13  15
ENDBRANCH   6  13
TORSDOF 5
