MODEL        1
REMARK       NORMALIZED FREE ENERGY PREDICTED BY IDOCK:  -8.749 KCAL/MOL
REMARK            TOTAL FREE ENERGY PREDICTED BY IDOCK: -13.007 KCAL/MOL
REMARK     INTER-LIGAND FREE ENERGY PREDICTED BY IDOCK: -12.585 KCAL/MOL
REMARK     INTRA-LIGAND FREE ENERGY PREDICTED BY IDOCK:  -0.422 KCAL/MOL
REMARK    RF-SCORE BINDING AFFINITY PREDICTED BY IDOCK:   6.733 PKD
ROOT
ATOM      1  O1  <0> d          -0.568  29.551   7.675  0.00  0.00    -0.422 OA
ENDROOT
BRANCH   1   2
ATOM      2  C9  <0> d          -0.589  30.964   7.883  0.00  0.00    -0.481 C 
ATOM      3  H12 <0> d          -0.903  31.463   6.967  0.00  0.00     0.000 H 
ATOM      4  H13 <0> d           0.409  31.305   8.158  0.00  0.00     0.000 H 
BRANCH   2   5
ATOM      5  C8  <0> d          -1.571  31.299   9.008  0.00  0.00    -0.897 C 
ATOM      6  H10 <0> d          -2.444  31.800   8.590  0.00  0.00     0.000 H 
ATOM      7  H11 <0> d          -1.086  31.955   9.731  0.00  0.00     0.000 H 
BRANCH   5   8
ATOM      8  C6  <0> d          -2.003  30.028   9.693  0.00  0.00    -0.378 A 
ATOM      9  C5  <0> d          -3.275  29.534   9.478  0.00  0.00    -0.679 A 
ATOM     10  C4  <0> d          -3.662  28.364  10.114  0.00  0.00    -0.656 A 
ATOM     11  H8  <0> d          -3.960  30.053   8.823  0.00  0.00     0.000 H 
ATOM     12  C3  <0> d          -2.751  27.732  10.946  0.00  0.00    -0.505 A 
ATOM     13  H7  <0> d          -4.650  27.955   9.965  0.00  0.00     0.000 H 
ATOM     14  C7  <0> d          -1.498  28.289  11.117  0.00  0.00    -0.363 A 
ATOM     15  N1  <0> d          -1.161  29.400  10.492  0.00  0.00    -0.335 NA
ATOM     16  H9  <0> d          -0.783  27.806  11.767  0.00  0.00     0.000 H 
BRANCH  12  17
ATOM     17  C2  <0> d          -3.124  26.458  11.659  0.00  0.00    -0.568 C 
ATOM     18  H5  <0> d          -3.493  25.731  10.936  0.00  0.00     0.000 H 
ATOM     19  H6  <0> d          -3.902  26.667  12.393  0.00  0.00     0.000 H 
BRANCH  17  20
ATOM     20  C1  <0> d          -1.892  25.892  12.369  0.00  0.00    -0.443 C 
ATOM     21  H2  <0> d          -1.114  25.683  11.635  0.00  0.00     0.000 H 
ATOM     22  H3  <0> d          -1.523  26.620  13.093  0.00  0.00     0.000 H 
ATOM     23  H4  <0> d          -2.162  24.971  12.885  0.00  0.00     0.000 H 
ENDBRANCH  17  20
ENDBRANCH  12  17
ENDBRANCH   5   8
ENDBRANCH   2   5
ENDBRANCH   1   2
BRANCH   1  24
ATOM     24  C10 <0> d           0.632  28.990   7.366  0.00  0.00    -0.501 A 
ATOM     25  C15 <0> d           0.896  27.675   7.719  0.00  0.00    -0.628 A 
ATOM     26  C14 <0> d           2.112  27.106   7.399  0.00  0.00    -0.546 A 
ATOM     27  H17 <0> d           0.147  27.094   8.239  0.00  0.00     0.000 H 
ATOM     28  C13 <0> d           3.073  27.850   6.737  0.00  0.00    -0.542 A 
ATOM     29  H16 <0> d           2.316  26.080   7.669  0.00  0.00     0.000 H 
ATOM     30  C12 <0> d           2.814  29.163   6.389  0.00  0.00    -0.760 A 
ATOM     31  C11 <0> d           1.595  29.735   6.702  0.00  0.00    -0.717 A 
ATOM     32  H15 <0> d           3.565  29.743   5.873  0.00  0.00     0.000 H 
ATOM     33  H14 <0> d           1.394  30.760   6.430  0.00  0.00     0.000 H 
BRANCH  28  34
ATOM     34  C16 <0> d           4.402  27.230   6.395  0.00  0.00    -0.512 C 
ATOM     35  H18 <0> d           4.680  27.505   5.378  0.00  0.00     0.000 H 
ATOM     36  H19 <0> d           5.160  27.589   7.090  0.00  0.00     0.000 H 
BRANCH  34  37
ATOM     37  C17 <0> d           4.296  25.707   6.499  0.00  0.00    -0.294 A 
ATOM     38  H1  <0> d           3.254  25.384   6.510  0.00  0.00     0.000 H 
ATOM     39  S1  <0> d           5.239  24.875   5.155  0.00  0.00    -0.292 SA
ATOM     40  C19 <0> d           6.410  24.008   6.194  0.00  0.00    -0.282 A 
ATOM     41  N2  <0> d           6.056  24.364   7.443  0.00  0.00    -0.313 N 
ATOM     42  O3  <0> d           7.313  23.270   5.852  0.00  0.00    -0.471 OA
ATOM     43  C18 <0> d           5.051  25.180   7.712  0.00  0.00    -0.304 A 
ATOM     44  H20 <0> d           6.567  24.005   8.186  0.00  0.00     0.000 HD
ATOM     45  O2  <0> d           4.750  25.487   8.846  0.00  0.00    -0.695 OA
ENDBRANCH  34  37
ENDBRANCH  28  34
ENDBRANCH   1  24
TORSDOF 8
ENDMDL
MODEL        2
REMARK       NORMALIZED FREE ENERGY PREDICTED BY IDOCK:  -8.742 KCAL/MOL
REMARK            TOTAL FREE ENERGY PREDICTED BY IDOCK: -12.996 KCAL/MOL
REMARK     INTER-LIGAND FREE ENERGY PREDICTED BY IDOCK: -12.170 KCAL/MOL
REMARK     INTRA-LIGAND FREE ENERGY PREDICTED BY IDOCK:  -0.826 KCAL/MOL
REMARK    RF-SCORE BINDING AFFINITY PREDICTED BY IDOCK:   6.885 PKD
ROOT
ATOM      1  O1  <0> d           0.959  28.935   7.932  0.00  0.00    -0.393 OA
ENDROOT
BRANCH   1   2
ATOM      2  C9  <0> d          -0.004  29.676   7.180  0.00  0.00    -0.181 C 
ATOM      3  H12 <0> d          -0.878  29.053   6.994  0.00  0.00     0.000 H 
ATOM      4  H13 <0> d           0.433  29.982   6.230  0.00  0.00     0.000 H 
BRANCH   2   5
ATOM      5  C8  <0> d          -0.423  30.917   7.973  0.00  0.00    -0.658 C 
ATOM      6  H10 <0> d          -0.732  31.701   7.282  0.00  0.00     0.000 H 
ATOM      7  H11 <0> d           0.418  31.268   8.570  0.00  0.00     0.000 H 
BRANCH   5   8
ATOM      8  C6  <0> d          -1.574  30.568   8.882  0.00  0.00    -0.491 A 
ATOM      9  C5  <0> d          -1.818  31.340  10.001  0.00  0.00    -1.095 A 
ATOM     10  C4  <0> d          -2.879  31.010  10.831  0.00  0.00    -0.823 A 
ATOM     11  H8  <0> d          -1.191  32.190  10.227  0.00  0.00     0.000 H 
ATOM     12  C3  <0> d          -3.657  29.911  10.503  0.00  0.00    -0.638 A 
ATOM     13  H7  <0> d          -3.093  31.596  11.712  0.00  0.00     0.000 H 
ATOM     14  C7  <0> d          -3.348  29.183   9.370  0.00  0.00    -0.474 A 
ATOM     15  N1  <0> d          -2.335  29.528   8.599  0.00  0.00    -0.433 NA
ATOM     16  H9  <0> d          -3.946  28.322   9.109  0.00  0.00     0.000 H 
BRANCH  12  17
ATOM     17  C2  <0> d          -4.821  29.512  11.372  0.00  0.00    -0.697 C 
ATOM     18  H5  <0> d          -4.495  28.766  12.097  0.00  0.00     0.000 H 
ATOM     19  H6  <0> d          -5.612  29.093  10.751  0.00  0.00     0.000 H 
BRANCH  17  20
ATOM     20  C1  <0> d          -5.351  30.743  12.111  0.00  0.00    -0.284 C 
ATOM     21  H2  <0> d          -4.560  31.162  12.733  0.00  0.00     0.000 H 
ATOM     22  H3  <0> d          -5.677  31.489  11.386  0.00  0.00     0.000 H 
ATOM     23  H4  <0> d          -6.193  30.454  12.740  0.00  0.00     0.000 H 
ENDBRANCH  17  20
ENDBRANCH  12  17
ENDBRANCH   5   8
ENDBRANCH   2   5
ENDBRANCH   1   2
BRANCH   1  24
ATOM     24  C10 <0> d           0.530  27.788   8.523  0.00  0.00    -0.436 A 
ATOM     25  C15 <0> d           0.494  27.691   9.907  0.00  0.00    -0.507 A 
ATOM     26  C14 <0> d           0.052  26.528  10.505  0.00  0.00    -0.370 A 
ATOM     27  H17 <0> d           0.805  28.528  10.515  0.00  0.00     0.000 H 
ATOM     28  C13 <0> d          -0.343  25.455   9.726  0.00  0.00    -0.354 A 
ATOM     29  H16 <0> d           0.018  26.454  11.582  0.00  0.00     0.000 H 
ATOM     30  C12 <0> d          -0.302  25.547   8.347  0.00  0.00    -0.551 A 
ATOM     31  C11 <0> d           0.134  26.711   7.744  0.00  0.00    -0.559 A 
ATOM     32  H15 <0> d          -0.610  24.708   7.741  0.00  0.00     0.000 H 
ATOM     33  H14 <0> d           0.165  26.783   6.667  0.00  0.00     0.000 H 
BRANCH  28  34
ATOM     34  C16 <0> d          -0.818  24.184  10.381  0.00  0.00    -0.424 C 
ATOM     35  H18 <0> d          -1.901  24.106  10.279  0.00  0.00     0.000 H 
ATOM     36  H19 <0> d          -0.344  23.329   9.902  0.00  0.00     0.000 H 
BRANCH  34  37
ATOM     37  C17 <0> d          -0.448  24.206  11.866  0.00  0.00    -0.311 A 
ATOM     38  H1  <0> d           0.452  24.797  12.039  0.00  0.00     0.000 H 
ATOM     39  S1  <0> d          -1.850  24.806  12.898  0.00  0.00    -0.286 SA
ATOM     40  C19 <0> d          -2.087  23.314  13.857  0.00  0.00    -0.341 A 
ATOM     41  N2  <0> d          -1.148  22.474  13.383  0.00  0.00    -0.500 N 
ATOM     42  O3  <0> d          -2.905  23.108  14.732  0.00  0.00    -0.843 OA
ATOM     43  C18 <0> d          -0.300  22.796  12.421  0.00  0.00    -0.292 A 
ATOM     44  H20 <0> d          -1.091  21.585  13.766  0.00  0.00     0.000 HD
ATOM     45  O2  <0> d           0.539  22.023  12.010  0.00  0.00    -0.230 OA
ENDBRANCH  34  37
ENDBRANCH  28  34
ENDBRANCH   1  24
TORSDOF 8
ENDMDL
MODEL        3
REMARK       NORMALIZED FREE ENERGY PREDICTED BY IDOCK:  -8.736 KCAL/MOL
REMARK            TOTAL FREE ENERGY PREDICTED BY IDOCK: -12.987 KCAL/MOL
REMARK     INTER-LIGAND FREE ENERGY PREDICTED BY IDOCK: -11.944 KCAL/MOL
REMARK     INTRA-LIGAND FREE ENERGY PREDICTED BY IDOCK:  -1.044 KCAL/MOL
REMARK    RF-SCORE BINDING AFFINITY PREDICTED BY IDOCK:   6.880 PKD
ROOT
ATOM      1  O1  <0> d          -2.728  27.573  12.004  0.00  0.00    -0.247 OA
ENDROOT
BRANCH   1   2
ATOM      2  C9  <0> d          -4.000  27.744  11.377  0.00  0.00    -0.321 C 
ATOM      3  H12 <0> d          -4.778  27.316  12.009  0.00  0.00     0.000 H 
ATOM      4  H13 <0> d          -3.999  27.240  10.410  0.00  0.00     0.000 H 
BRANCH   2   5
ATOM      5  C8  <0> d          -4.272  29.236  11.175  0.00  0.00    -0.747 C 
ATOM      6  H10 <0> d          -4.212  29.749  12.135  0.00  0.00     0.000 H 
ATOM      7  H11 <0> d          -5.268  29.370  10.752  0.00  0.00     0.000 H 
BRANCH   5   8
ATOM      8  C6  <0> d          -3.246  29.812  10.234  0.00  0.00    -0.398 A 
ATOM      9  C5  <0> d          -2.512  30.919  10.616  0.00  0.00    -0.922 A 
ATOM     10  C4  <0> d          -1.571  31.440   9.742  0.00  0.00    -1.032 A 
ATOM     11  H8  <0> d          -2.670  31.372  11.583  0.00  0.00     0.000 H 
ATOM     12  C3  <0> d          -1.401  30.826   8.511  0.00  0.00    -0.840 A 
ATOM     13  H7  <0> d          -0.983  32.304  10.014  0.00  0.00     0.000 H 
ATOM     14  C7  <0> d          -2.176  29.726   8.196  0.00  0.00    -0.470 A 
ATOM     15  N1  <0> d          -3.058  29.252   9.054  0.00  0.00    -0.452 NA
ATOM     16  H9  <0> d          -2.054  29.244   7.236  0.00  0.00     0.000 H 
BRANCH  12  17
ATOM     17  C2  <0> d          -0.391  31.355   7.526  0.00  0.00    -0.595 C 
ATOM     18  H5  <0> d           0.109  32.226   7.950  0.00  0.00     0.000 H 
ATOM     19  H6  <0> d          -0.896  31.640   6.604  0.00  0.00     0.000 H 
BRANCH  17  20
ATOM     20  C1  <0> d           0.645  30.269   7.225  0.00  0.00    -0.431 C 
ATOM     21  H2  <0> d           1.151  29.985   8.148  0.00  0.00     0.000 H 
ATOM     22  H3  <0> d           0.145  29.398   6.801  0.00  0.00     0.000 H 
ATOM     23  H4  <0> d           1.375  30.652   6.513  0.00  0.00     0.000 H 
ENDBRANCH  17  20
ENDBRANCH  12  17
ENDBRANCH   5   8
ENDBRANCH   2   5
ENDBRANCH   1   2
BRANCH   1  24
ATOM     24  C10 <0> d          -1.699  27.168  11.212  0.00  0.00    -0.346 A 
ATOM     25  C15 <0> d          -0.487  27.841  11.249  0.00  0.00    -0.524 A 
ATOM     26  C14 <0> d           0.558  27.423  10.448  0.00  0.00    -0.510 A 
ATOM     27  H17 <0> d          -0.359  28.688  11.907  0.00  0.00     0.000 H 
ATOM     28  C13 <0> d           0.392  26.342   9.602  0.00  0.00    -0.372 A 
ATOM     29  H16 <0> d           1.504  27.943  10.481  0.00  0.00     0.000 H 
ATOM     30  C12 <0> d          -0.816  25.673   9.559  0.00  0.00    -0.443 A 
ATOM     31  C11 <0> d          -1.864  26.083  10.363  0.00  0.00    -0.443 A 
ATOM     32  H15 <0> d          -0.944  24.829   8.897  0.00  0.00     0.000 H 
ATOM     33  H14 <0> d          -2.808  25.560  10.330  0.00  0.00     0.000 H 
BRANCH  28  34
ATOM     34  C16 <0> d           1.532  25.892   8.724  0.00  0.00    -0.352 C 
ATOM     35  H18 <0> d           1.142  25.288   7.905  0.00  0.00     0.000 H 
ATOM     36  H19 <0> d           2.047  26.763   8.322  0.00  0.00     0.000 H 
BRANCH  34  37
ATOM     37  C17 <0> d           2.512  25.057   9.550  0.00  0.00    -0.323 A 
ATOM     38  H1  <0> d           2.573  25.420  10.576  0.00  0.00     0.000 H 
ATOM     39  S1  <0> d           2.079  23.268   9.499  0.00  0.00    -0.319 SA
ATOM     40  C19 <0> d           3.577  22.688   8.712  0.00  0.00    -0.228 A 
ATOM     41  N2  <0> d           4.301  23.809   8.532  0.00  0.00    -0.369 N 
ATOM     42  O3  <0> d           3.873  21.549   8.410  0.00  0.00    -0.199 OA
ATOM     43  C18 <0> d           3.887  25.011   8.897  0.00  0.00    -0.390 A 
ATOM     44  H20 <0> d           5.172  23.732   8.111  0.00  0.00     0.000 HD
ATOM     45  O2  <0> d           4.557  26.007   8.727  0.00  0.00    -0.674 OA
ENDBRANCH  34  37
ENDBRANCH  28  34
ENDBRANCH   1  24
TORSDOF 8
ENDMDL
MODEL        4
REMARK       NORMALIZED FREE ENERGY PREDICTED BY IDOCK:  -8.698 KCAL/MOL
REMARK            TOTAL FREE ENERGY PREDICTED BY IDOCK: -12.933 KCAL/MOL
REMARK     INTER-LIGAND FREE ENERGY PREDICTED BY IDOCK: -11.859 KCAL/MOL
REMARK     INTRA-LIGAND FREE ENERGY PREDICTED BY IDOCK:  -1.073 KCAL/MOL
REMARK    RF-SCORE BINDING AFFINITY PREDICTED BY IDOCK:   6.617 PKD
ROOT
ATOM      1  O1  <0> d          -2.430  30.940  10.234  0.00  0.00    -0.502 OA
ENDROOT
BRANCH   1   2
ATOM      2  C9  <0> d          -1.390  31.295   9.320  0.00  0.00    -0.558 C 
ATOM      3  H12 <0> d          -0.422  31.055   9.759  0.00  0.00     0.000 H 
ATOM      4  H13 <0> d          -1.439  32.364   9.111  0.00  0.00     0.000 H 
BRANCH   2   5
ATOM      5  C8  <0> d          -1.568  30.512   8.017  0.00  0.00    -0.780 C 
ATOM      6  H10 <0> d          -1.982  31.169   7.253  0.00  0.00     0.000 H 
ATOM      7  H11 <0> d          -2.247  29.676   8.186  0.00  0.00     0.000 H 
BRANCH   5   8
ATOM      8  C6  <0> d          -0.231  29.989   7.559  0.00  0.00    -0.332 A 
ATOM      9  C5  <0> d           0.100  28.666   7.786  0.00  0.00    -0.704 A 
ATOM     10  C4  <0> d           1.333  28.196   7.361  0.00  0.00    -0.646 A 
ATOM     11  H8  <0> d          -0.594  28.008   8.288  0.00  0.00     0.000 H 
ATOM     12  C3  <0> d           2.190  29.076   6.720  0.00  0.00    -0.705 A 
ATOM     13  H7  <0> d           1.617  27.167   7.525  0.00  0.00     0.000 H 
ATOM     14  C7  <0> d           1.793  30.386   6.534  0.00  0.00    -0.480 A 
ATOM     15  N1  <0> d           0.610  30.799   6.946  0.00  0.00    -0.295 NA
ATOM     16  H9  <0> d           2.457  31.081   6.040  0.00  0.00     0.000 H 
BRANCH  12  17
ATOM     17  C2  <0> d           3.541  28.612   6.239  0.00  0.00    -0.659 C 
ATOM     18  H5  <0> d           4.315  28.992   6.907  0.00  0.00     0.000 H 
ATOM     19  H6  <0> d           3.716  28.987   5.232  0.00  0.00     0.000 H 
BRANCH  17  20
ATOM     20  C1  <0> d           3.581  27.083   6.229  0.00  0.00    -0.503 C 
ATOM     21  H2  <0> d           3.407  26.708   7.238  0.00  0.00     0.000 H 
ATOM     22  H3  <0> d           2.807  26.704   5.561  0.00  0.00     0.000 H 
ATOM     23  H4  <0> d           4.558  26.748   5.881  0.00  0.00     0.000 H 
ENDBRANCH  17  20
ENDBRANCH  12  17
ENDBRANCH   5   8
ENDBRANCH   2   5
ENDBRANCH   1   2
BRANCH   1  24
ATOM     24  C10 <0> d          -2.492  29.639  10.622  0.00  0.00    -0.343 A 
ATOM     25  C15 <0> d          -3.679  28.932  10.498  0.00  0.00    -0.657 A 
ATOM     26  C14 <0> d          -3.737  27.608  10.887  0.00  0.00    -0.524 A 
ATOM     27  H17 <0> d          -4.556  29.416  10.092  0.00  0.00     0.000 H 
ATOM     28  C13 <0> d          -2.616  26.990  11.411  0.00  0.00    -0.479 A 
ATOM     29  H16 <0> d          -4.660  27.056  10.786  0.00  0.00     0.000 H 
ATOM     30  C12 <0> d          -1.433  27.694  11.542  0.00  0.00    -0.470 A 
ATOM     31  C11 <0> d          -1.368  29.017  11.148  0.00  0.00    -0.318 A 
ATOM     32  H15 <0> d          -0.559  27.209  11.951  0.00  0.00     0.000 H 
ATOM     33  H14 <0> d          -0.444  29.566  11.249  0.00  0.00     0.000 H 
BRANCH  28  34
ATOM     34  C16 <0> d          -2.684  25.548  11.842  0.00  0.00    -0.174 C 
ATOM     35  H18 <0> d          -3.271  25.469  12.757  0.00  0.00     0.000 H 
ATOM     36  H19 <0> d          -3.153  24.956  11.056  0.00  0.00     0.000 H 
BRANCH  34  37
ATOM     37  C17 <0> d          -1.269  25.025  12.098  0.00  0.00    -0.322 A 
ATOM     38  H1  <0> d          -0.518  25.728  11.737  0.00  0.00     0.000 H 
ATOM     39  S1  <0> d          -1.013  24.627  13.877  0.00  0.00    -0.361 SA
ATOM     40  C19 <0> d          -0.704  22.876  13.682  0.00  0.00    -0.287 A 
ATOM     41  N2  <0> d          -0.801  22.678  12.354  0.00  0.00    -0.520 N 
ATOM     42  O3  <0> d          -0.462  22.056  14.546  0.00  0.00    -0.269 OA
ATOM     43  C18 <0> d          -1.071  23.643  11.490  0.00  0.00    -0.368 A 
ATOM     44  H20 <0> d          -0.668  21.780  12.011  0.00  0.00     0.000 HD
ATOM     45  O2  <0> d          -1.153  23.442  10.297  0.00  0.00    -0.604 OA
ENDBRANCH  34  37
ENDBRANCH  28  34
ENDBRANCH   1  24
TORSDOF 8
ENDMDL
MODEL        5
REMARK       NORMALIZED FREE ENERGY PREDICTED BY IDOCK:  -8.687 KCAL/MOL
REMARK            TOTAL FREE ENERGY PREDICTED BY IDOCK: -12.918 KCAL/MOL
REMARK     INTER-LIGAND FREE ENERGY PREDICTED BY IDOCK: -11.908 KCAL/MOL
REMARK     INTRA-LIGAND FREE ENERGY PREDICTED BY IDOCK:  -1.009 KCAL/MOL
REMARK    RF-SCORE BINDING AFFINITY PREDICTED BY IDOCK:   6.984 PKD
ROOT
ATOM      1  O1  <0> d          -2.897  26.746  12.017  0.00  0.00    -0.405 OA
ENDROOT
BRANCH   1   2
ATOM      2  C9  <0> d          -3.779  27.175  10.978  0.00  0.00    -0.370 C 
ATOM      3  H12 <0> d          -4.715  26.620  11.043  0.00  0.00     0.000 H 
ATOM      4  H13 <0> d          -3.315  26.992  10.009  0.00  0.00     0.000 H 
BRANCH   2   5
ATOM      5  C8  <0> d          -4.062  28.671  11.135  0.00  0.00    -0.651 C 
ATOM      6  H10 <0> d          -3.879  28.968  12.167  0.00  0.00     0.000 H 
ATOM      7  H11 <0> d          -5.102  28.873  10.877  0.00  0.00     0.000 H 
BRANCH   5   8
ATOM      8  C6  <0> d          -3.156  29.452  10.219  0.00  0.00    -0.375 A 
ATOM      9  C5  <0> d          -2.539  30.599  10.683  0.00  0.00    -0.808 A 
ATOM     10  C4  <0> d          -1.708  31.310   9.832  0.00  0.00    -1.047 A 
ATOM     11  H8  <0> d          -2.703  30.935  11.696  0.00  0.00     0.000 H 
ATOM     12  C3  <0> d          -1.528  30.841   8.540  0.00  0.00    -0.844 A 
ATOM     13  H7  <0> d          -1.213  32.209  10.168  0.00  0.00     0.000 H 
ATOM     14  C7  <0> d          -2.182  29.690   8.145  0.00  0.00    -0.487 A 
ATOM     15  N1  <0> d          -2.962  29.035   8.983  0.00  0.00    -0.435 NA
ATOM     16  H9  <0> d          -2.051  29.320   7.139  0.00  0.00     0.000 H 
BRANCH  12  17
ATOM     17  C2  <0> d          -0.634  31.579   7.578  0.00  0.00    -0.471 C 
ATOM     18  H5  <0> d          -0.389  32.559   7.987  0.00  0.00     0.000 H 
ATOM     19  H6  <0> d          -1.149  31.702   6.626  0.00  0.00     0.000 H 
BRANCH  17  20
ATOM     20  C1  <0> d           0.653  30.780   7.362  0.00  0.00    -0.403 C 
ATOM     21  H2  <0> d           1.169  30.658   8.315  0.00  0.00     0.000 H 
ATOM     22  H3  <0> d           0.408  29.801   6.952  0.00  0.00     0.000 H 
ATOM     23  H4  <0> d           1.299  31.315   6.665  0.00  0.00     0.000 H 
ENDBRANCH  17  20
ENDBRANCH  12  17
ENDBRANCH   5   8
ENDBRANCH   2   5
ENDBRANCH   1   2
BRANCH   1  24
ATOM     24  C10 <0> d          -1.605  26.506  11.668  0.00  0.00    -0.339 A 
ATOM     25  C15 <0> d          -0.646  27.495  11.832  0.00  0.00    -0.481 A 
ATOM     26  C14 <0> d           0.667  27.246  11.483  0.00  0.00    -0.565 A 
ATOM     27  H17 <0> d          -0.925  28.457  12.238  0.00  0.00     0.000 H 
ATOM     28  C13 <0> d           1.024  26.017  10.960  0.00  0.00    -0.418 A 
ATOM     29  H16 <0> d           1.415  28.014  11.616  0.00  0.00     0.000 H 
ATOM     30  C12 <0> d           0.069  25.031  10.790  0.00  0.00    -0.286 A 
ATOM     31  C11 <0> d          -1.245  25.273  11.143  0.00  0.00    -0.339 A 
ATOM     32  H15 <0> d           0.350  24.072  10.381  0.00  0.00     0.000 H 
ATOM     33  H14 <0> d          -1.991  24.503  11.011  0.00  0.00     0.000 H 
BRANCH  28  34
ATOM     34  C16 <0> d           2.456  25.750  10.574  0.00  0.00    -0.464 C 
ATOM     35  H18 <0> d           3.059  26.634  10.781  0.00  0.00     0.000 H 
ATOM     36  H19 <0> d           2.836  24.907  11.149  0.00  0.00     0.000 H 
BRANCH  34  37
ATOM     37  C17 <0> d           2.529  25.423   9.081  0.00  0.00    -0.302 A 
ATOM     38  H1  <0> d           2.194  24.405   8.884  0.00  0.00     0.000 H 
ATOM     39  S1  <0> d           1.584  26.645   8.079  0.00  0.00    -0.346 SA
ATOM     40  C19 <0> d           2.961  27.286   7.134  0.00  0.00    -0.330 A 
ATOM     41  N2  <0> d           4.017  26.587   7.590  0.00  0.00    -0.334 N 
ATOM     42  O3  <0> d           2.946  28.150   6.279  0.00  0.00    -0.353 OA
ATOM     43  C18 <0> d           3.929  25.661   8.530  0.00  0.00    -0.428 A 
ATOM     44  H20 <0> d           4.890  26.774   7.210  0.00  0.00     0.000 HD
ATOM     45  O2  <0> d           4.895  25.043   8.925  0.00  0.00    -0.626 OA
ENDBRANCH  34  37
ENDBRANCH  28  34
ENDBRANCH   1  24
TORSDOF 8
ENDMDL
MODEL        6
REMARK       NORMALIZED FREE ENERGY PREDICTED BY IDOCK:  -8.675 KCAL/MOL
REMARK            TOTAL FREE ENERGY PREDICTED BY IDOCK: -12.900 KCAL/MOL
REMARK     INTER-LIGAND FREE ENERGY PREDICTED BY IDOCK: -11.954 KCAL/MOL
REMARK     INTRA-LIGAND FREE ENERGY PREDICTED BY IDOCK:  -0.946 KCAL/MOL
REMARK    RF-SCORE BINDING AFFINITY PREDICTED BY IDOCK:   6.625 PKD
ROOT
ATOM      1  O1  <0> d          -2.860  29.526   9.767  0.00  0.00    -0.368 OA
ENDROOT
BRANCH   1   2
ATOM      2  C9  <0> d          -2.326  29.480   8.442  0.00  0.00    -0.475 C 
ATOM      3  H12 <0> d          -3.140  29.537   7.719  0.00  0.00     0.000 H 
ATOM      4  H13 <0> d          -1.780  28.547   8.302  0.00  0.00     0.000 H 
BRANCH   2   5
ATOM      5  C8  <0> d          -1.376  30.663   8.235  0.00  0.00    -0.795 C 
ATOM      6  H10 <0> d          -1.211  31.166   9.187  0.00  0.00     0.000 H 
ATOM      7  H11 <0> d          -1.818  31.362   7.525  0.00  0.00     0.000 H 
BRANCH   5   8
ATOM      8  C6  <0> d          -0.061  30.162   7.696  0.00  0.00    -0.315 A 
ATOM      9  C5  <0> d           0.237  28.814   7.763  0.00  0.00    -0.704 A 
ATOM     10  C4  <0> d           1.450  28.365   7.265  0.00  0.00    -0.671 A 
ATOM     11  H8  <0> d          -0.467  28.120   8.198  0.00  0.00     0.000 H 
ATOM     12  C3  <0> d           2.322  29.291   6.715  0.00  0.00    -0.702 A 
ATOM     13  H7  <0> d           1.709  27.317   7.304  0.00  0.00     0.000 H 
ATOM     14  C7  <0> d           1.958  30.624   6.688  0.00  0.00    -0.374 A 
ATOM     15  N1  <0> d           0.793  31.016   7.166  0.00  0.00    -0.340 NA
ATOM     16  H9  <0> d           2.634  31.354   6.266  0.00  0.00     0.000 H 
BRANCH  12  17
ATOM     17  C2  <0> d           3.652  28.852   6.160  0.00  0.00    -0.669 C 
ATOM     18  H5  <0> d           4.455  29.356   6.699  0.00  0.00     0.000 H 
ATOM     19  H6  <0> d           3.707  29.109   5.103  0.00  0.00     0.000 H 
BRANCH  17  20
ATOM     20  C1  <0> d           3.799  27.338   6.326  0.00  0.00    -0.480 C 
ATOM     21  H2  <0> d           3.745  27.082   7.384  0.00  0.00     0.000 H 
ATOM     22  H3  <0> d           2.996  26.834   5.788  0.00  0.00     0.000 H 
ATOM     23  H4  <0> d           4.761  27.021   5.924  0.00  0.00     0.000 H 
ENDBRANCH  17  20
ENDBRANCH  12  17
ENDBRANCH   5   8
ENDBRANCH   2   5
ENDBRANCH   1   2
BRANCH   1  24
ATOM     24  C10 <0> d          -2.469  28.544  10.623  0.00  0.00    -0.333 A 
ATOM     25  C15 <0> d          -1.240  28.627  11.260  0.00  0.00    -0.463 A 
ATOM     26  C14 <0> d          -0.848  27.632  12.134  0.00  0.00    -0.511 A 
ATOM     27  H17 <0> d          -0.592  29.472  11.077  0.00  0.00     0.000 H 
ATOM     28  C13 <0> d          -1.675  26.548  12.365  0.00  0.00    -0.414 A 
ATOM     29  H16 <0> d           0.107  27.699  12.635  0.00  0.00     0.000 H 
ATOM     30  C12 <0> d          -2.898  26.460  11.727  0.00  0.00    -0.559 A 
ATOM     31  C11 <0> d          -3.298  27.456  10.856  0.00  0.00    -0.589 A 
ATOM     32  H15 <0> d          -3.543  25.612  11.908  0.00  0.00     0.000 H 
ATOM     33  H14 <0> d          -4.253  27.388  10.358  0.00  0.00     0.000 H 
BRANCH  28  34
ATOM     34  C16 <0> d          -1.243  25.460  13.314  0.00  0.00    -0.489 C 
ATOM     35  H18 <0> d          -0.165  25.521  13.469  0.00  0.00     0.000 H 
ATOM     36  H19 <0> d          -1.755  25.585  14.267  0.00  0.00     0.000 H 
BRANCH  34  37
ATOM     37  C17 <0> d          -1.596  24.095  12.720  0.00  0.00    -0.336 A 
ATOM     38  H1  <0> d          -2.407  24.178  11.997  0.00  0.00     0.000 H 
ATOM     39  S1  <0> d          -0.119  23.284  11.979  0.00  0.00    -0.311 SA
ATOM     40  C19 <0> d          -0.077  21.852  13.051  0.00  0.00    -0.269 A 
ATOM     41  N2  <0> d          -1.123  22.038  13.877  0.00  0.00    -0.377 N 
ATOM     42  O3  <0> d           0.712  20.928  13.037  0.00  0.00    -0.221 OA
ATOM     43  C18 <0> d          -1.928  23.086  13.811  0.00  0.00    -0.352 A 
ATOM     44  H20 <0> d          -1.296  21.368  14.558  0.00  0.00     0.000 HD
ATOM     45  O2  <0> d          -2.866  23.231  14.565  0.00  0.00    -0.839 OA
ENDBRANCH  34  37
ENDBRANCH  28  34
ENDBRANCH   1  24
TORSDOF 8
ENDMDL
MODEL        7
REMARK       NORMALIZED FREE ENERGY PREDICTED BY IDOCK:  -8.625 KCAL/MOL
REMARK            TOTAL FREE ENERGY PREDICTED BY IDOCK: -12.829 KCAL/MOL
REMARK     INTER-LIGAND FREE ENERGY PREDICTED BY IDOCK: -12.149 KCAL/MOL
REMARK     INTRA-LIGAND FREE ENERGY PREDICTED BY IDOCK:  -0.680 KCAL/MOL
REMARK    RF-SCORE BINDING AFFINITY PREDICTED BY IDOCK:   7.132 PKD
ROOT
ATOM      1  O1  <0> d           1.233  30.549   6.722  0.00  0.00    -0.438 OA
ENDROOT
BRANCH   1   2
ATOM      2  C9  <0> d          -0.189  30.638   6.827  0.00  0.00     0.486 C 
ATOM      3  H12 <0> d          -0.600  29.657   7.060  0.00  0.00     0.000 H 
ATOM      4  H13 <0> d          -0.601  30.989   5.880  0.00  0.00     0.000 H 
BRANCH   2   5
ATOM      5  C8  <0> d          -0.557  31.623   7.940  0.00  0.00    -0.673 C 
ATOM      6  H10 <0> d          -0.973  32.529   7.500  0.00  0.00     0.000 H 
ATOM      7  H11 <0> d           0.336  31.873   8.513  0.00  0.00     0.000 H 
BRANCH   5   8
ATOM      8  C6  <0> d          -1.579  30.992   8.851  0.00  0.00    -0.535 A 
ATOM      9  C5  <0> d          -1.781  31.514  10.114  0.00  0.00    -1.090 A 
ATOM     10  C4  <0> d          -2.723  30.926  10.944  0.00  0.00    -0.881 A 
ATOM     11  H8  <0> d          -1.213  32.368  10.451  0.00  0.00     0.000 H 
ATOM     12  C3  <0> d          -3.429  29.831  10.471  0.00  0.00    -0.653 A 
ATOM     13  H7  <0> d          -2.903  31.312  11.937  0.00  0.00     0.000 H 
ATOM     14  C7  <0> d          -3.169  29.362   9.197  0.00  0.00    -0.419 A 
ATOM     15  N1  <0> d          -2.269  29.949   8.432  0.00  0.00    -0.420 NA
ATOM     16  H9  <0> d          -3.711  28.506   8.822  0.00  0.00     0.000 H 
BRANCH  12  17
ATOM     17  C2  <0> d          -4.464  29.158  11.335  0.00  0.00    -0.722 C 
ATOM     18  H5  <0> d          -3.976  28.695  12.192  0.00  0.00     0.000 H 
ATOM     19  H6  <0> d          -4.980  28.394  10.755  0.00  0.00     0.000 H 
BRANCH  17  20
ATOM     20  C1  <0> d          -5.476  30.197  11.823  0.00  0.00    -0.662 C 
ATOM     21  H2  <0> d          -4.959  30.961  12.404  0.00  0.00     0.000 H 
ATOM     22  H3  <0> d          -5.964  30.660  10.965  0.00  0.00     0.000 H 
ATOM     23  H4  <0> d          -6.224  29.709  12.447  0.00  0.00     0.000 H 
ENDBRANCH  17  20
ENDBRANCH  12  17
ENDBRANCH   5   8
ENDBRANCH   2   5
ENDBRANCH   1   2
BRANCH   1  24
ATOM     24  C10 <0> d           1.779  29.305   6.783  0.00  0.00    -0.482 A 
ATOM     25  C15 <0> d           3.020  29.062   6.213  0.00  0.00    -0.749 A 
ATOM     26  C14 <0> d           3.575  27.799   6.282  0.00  0.00    -0.523 A 
ATOM     27  H17 <0> d           3.554  29.861   5.721  0.00  0.00     0.000 H 
ATOM     28  C13 <0> d           2.889  26.774   6.907  0.00  0.00    -0.509 A 
ATOM     29  H16 <0> d           4.544  27.611   5.843  0.00  0.00     0.000 H 
ATOM     30  C12 <0> d           1.649  27.012   7.471  0.00  0.00    -0.535 A 
ATOM     31  C11 <0> d           1.092  28.275   7.410  0.00  0.00    -0.671 A 
ATOM     32  H15 <0> d           1.114  26.210   7.959  0.00  0.00     0.000 H 
ATOM     33  H14 <0> d           0.124  28.461   7.851  0.00  0.00     0.000 H 
BRANCH  28  34
ATOM     34  C16 <0> d           3.493  25.395   6.975  0.00  0.00    -0.456 C 
ATOM     35  H18 <0> d           2.825  24.682   6.492  0.00  0.00     0.000 H 
ATOM     36  H19 <0> d           4.456  25.395   6.465  0.00  0.00     0.000 H 
BRANCH  34  37
ATOM     37  C17 <0> d           3.691  24.997   8.439  0.00  0.00    -0.289 A 
ATOM     38  H1  <0> d           3.737  25.875   9.083  0.00  0.00     0.000 H 
ATOM     39  S1  <0> d           2.386  23.825   8.998  0.00  0.00    -0.244 SA
ATOM     40  C19 <0> d           3.458  22.440   9.366  0.00  0.00    -0.100 A 
ATOM     41  N2  <0> d           4.689  22.898   9.068  0.00  0.00    -0.473 N 
ATOM     42  O3  <0> d           3.149  21.343   9.787  0.00  0.00    -0.207 OA
ATOM     43  C18 <0> d           4.923  24.117   8.611  0.00  0.00    -0.272 A 
ATOM     44  H20 <0> d           5.444  22.302   9.193  0.00  0.00     0.000 HD
ATOM     45  O2  <0> d           6.040  24.509   8.351  0.00  0.00    -0.631 OA
ENDBRANCH  34  37
ENDBRANCH  28  34
ENDBRANCH   1  24
TORSDOF 8
ENDMDL
MODEL        8
REMARK       NORMALIZED FREE ENERGY PREDICTED BY IDOCK:  -8.620 KCAL/MOL
REMARK            TOTAL FREE ENERGY PREDICTED BY IDOCK: -12.821 KCAL/MOL
REMARK     INTER-LIGAND FREE ENERGY PREDICTED BY IDOCK: -12.301 KCAL/MOL
REMARK     INTRA-LIGAND FREE ENERGY PREDICTED BY IDOCK:  -0.519 KCAL/MOL
REMARK    RF-SCORE BINDING AFFINITY PREDICTED BY IDOCK:   6.921 PKD
ROOT
ATOM      1  O1  <0> d           1.395  30.052   7.114  0.00  0.00    -0.387 OA
ENDROOT
BRANCH   1   2
ATOM      2  C9  <0> d          -0.032  29.995   7.071  0.00  0.00    -0.085 C 
ATOM      3  H12 <0> d          -0.373  29.066   7.527  0.00  0.00     0.000 H 
ATOM      4  H13 <0> d          -0.367  30.035   6.034  0.00  0.00     0.000 H 
BRANCH   2   5
ATOM      5  C8  <0> d          -0.613  31.184   7.841  0.00  0.00    -0.786 C 
ATOM      6  H10 <0> d          -1.078  31.877   7.140  0.00  0.00     0.000 H 
ATOM      7  H11 <0> d           0.187  31.693   8.380  0.00  0.00     0.000 H 
BRANCH   5   8
ATOM      8  C6  <0> d          -1.646  30.692   8.821  0.00  0.00    -0.486 A 
ATOM      9  C5  <0> d          -1.875  31.400   9.986  0.00  0.00    -1.095 A 
ATOM     10  C4  <0> d          -2.827  30.938  10.881  0.00  0.00    -0.881 A 
ATOM     11  H8  <0> d          -1.318  32.302  10.195  0.00  0.00     0.000 H 
ATOM     12  C3  <0> d          -3.517  29.777  10.570  0.00  0.00    -0.667 A 
ATOM     13  H7  <0> d          -3.027  31.472  11.799  0.00  0.00     0.000 H 
ATOM     14  C7  <0> d          -3.230  29.119   9.389  0.00  0.00    -0.464 A 
ATOM     15  N1  <0> d          -2.321  29.590   8.558  0.00  0.00    -0.433 NA
ATOM     16  H9  <0> d          -3.760  28.211   9.142  0.00  0.00     0.000 H 
BRANCH  12  17
ATOM     17  C2  <0> d          -4.562  29.235  11.511  0.00  0.00    -0.711 C 
ATOM     18  H5  <0> d          -4.089  28.934  12.446  0.00  0.00     0.000 H 
ATOM     19  H6  <0> d          -5.048  28.373  11.056  0.00  0.00     0.000 H 
BRANCH  17  20
ATOM     20  C1  <0> d          -5.606  30.318  11.793  0.00  0.00    -0.525 C 
ATOM     21  H2  <0> d          -5.119  31.181  12.249  0.00  0.00     0.000 H 
ATOM     22  H3  <0> d          -6.079  30.619  10.858  0.00  0.00     0.000 H 
ATOM     23  H4  <0> d          -6.361  29.926  12.473  0.00  0.00     0.000 H 
ENDBRANCH  17  20
ENDBRANCH  12  17
ENDBRANCH   5   8
ENDBRANCH   2   5
ENDBRANCH   1   2
BRANCH   1  24
ATOM     24  C10 <0> d           2.067  28.911   6.806  0.00  0.00    -0.460 A 
ATOM     25  C15 <0> d           3.085  28.936   5.863  0.00  0.00    -0.721 A 
ATOM     26  C14 <0> d           3.770  27.777   5.558  0.00  0.00    -0.605 A 
ATOM     27  H17 <0> d           3.344  29.863   5.373  0.00  0.00     0.000 H 
ATOM     28  C13 <0> d           3.435  26.589   6.181  0.00  0.00    -0.500 A 
ATOM     29  H16 <0> d           4.566  27.798   4.828  0.00  0.00     0.000 H 
ATOM     30  C12 <0> d           2.418  26.560   7.117  0.00  0.00    -0.501 A 
ATOM     31  C11 <0> d           1.733  27.718   7.431  0.00  0.00    -0.597 A 
ATOM     32  H15 <0> d           2.157  25.631   7.603  0.00  0.00     0.000 H 
ATOM     33  H14 <0> d           0.938  27.695   8.163  0.00  0.00     0.000 H 
BRANCH  28  34
ATOM     34  C16 <0> d           4.180  25.324   5.841  0.00  0.00    -0.502 C 
ATOM     35  H18 <0> d           3.566  24.461   6.098  0.00  0.00     0.000 H 
ATOM     36  H19 <0> d           4.402  25.309   4.775  0.00  0.00     0.000 H 
BRANCH  34  37
ATOM     37  C17 <0> d           5.487  25.274   6.634  0.00  0.00    -0.238 A 
ATOM     38  H1  <0> d           5.971  26.250   6.659  0.00  0.00     0.000 H 
ATOM     39  S1  <0> d           5.217  24.618   8.333  0.00  0.00    -0.228 SA
ATOM     40  C19 <0> d           6.246  23.161   8.187  0.00  0.00    -0.310 A 
ATOM     41  N2  <0> d           6.724  23.230   6.930  0.00  0.00    -0.263 N 
ATOM     42  O3  <0> d           6.463  22.309   9.026  0.00  0.00    -0.322 OA
ATOM     43  C18 <0> d           6.425  24.205   6.088  0.00  0.00    -0.289 A 
ATOM     44  H20 <0> d           7.318  22.526   6.625  0.00  0.00     0.000 HD
ATOM     45  O2  <0> d           6.869  24.247   4.961  0.00  0.00    -0.245 OA
ENDBRANCH  34  37
ENDBRANCH  28  34
ENDBRANCH   1  24
TORSDOF 8
ENDMDL
MODEL        9
REMARK       NORMALIZED FREE ENERGY PREDICTED BY IDOCK:  -8.447 KCAL/MOL
REMARK            TOTAL FREE ENERGY PREDICTED BY IDOCK: -12.572 KCAL/MOL
REMARK     INTER-LIGAND FREE ENERGY PREDICTED BY IDOCK: -11.787 KCAL/MOL
REMARK     INTRA-LIGAND FREE ENERGY PREDICTED BY IDOCK:  -0.786 KCAL/MOL
REMARK    RF-SCORE BINDING AFFINITY PREDICTED BY IDOCK:   6.568 PKD
ROOT
ATOM      1  O1  <0> d          -1.035  29.437   9.500  0.00  0.00    -0.350 OA
ENDROOT
BRANCH   1   2
ATOM      2  C9  <0> d          -0.810  29.005   8.157  0.00  0.00    -0.438 C 
ATOM      3  H12 <0> d          -1.741  29.064   7.594  0.00  0.00     0.000 H 
ATOM      4  H13 <0> d          -0.452  27.975   8.162  0.00  0.00     0.000 H 
BRANCH   2   5
ATOM      5  C8  <0> d           0.240  29.906   7.501  0.00  0.00    -0.526 C 
ATOM      6  H10 <0> d           0.577  30.653   8.219  0.00  0.00     0.000 H 
ATOM      7  H11 <0> d          -0.198  30.404   6.636  0.00  0.00     0.000 H 
BRANCH   5   8
ATOM      8  C6  <0> d           1.413  29.070   7.058  0.00  0.00    -0.499 A 
ATOM      9  C5  <0> d           2.357  29.614   6.207  0.00  0.00    -0.758 A 
ATOM     10  C4  <0> d           3.432  28.836   5.805  0.00  0.00    -0.649 A 
ATOM     11  H8  <0> d           2.257  30.632   5.859  0.00  0.00     0.000 H 
ATOM     12  C3  <0> d           3.519  27.536   6.276  0.00  0.00    -0.517 A 
ATOM     13  H7  <0> d           4.184  29.235   5.141  0.00  0.00     0.000 H 
ATOM     14  C7  <0> d           2.534  27.059   7.120  0.00  0.00    -0.383 A 
ATOM     15  N1  <0> d           1.527  27.828   7.487  0.00  0.00    -0.428 NA
ATOM     16  H9  <0> d           2.591  26.044   7.489  0.00  0.00     0.000 H 
BRANCH  12  17
ATOM     17  C2  <0> d           4.669  26.651   5.869  0.00  0.00    -0.502 C 
ATOM     18  H5  <0> d           4.609  25.706   6.409  0.00  0.00     0.000 H 
ATOM     19  H6  <0> d           5.609  27.146   6.106  0.00  0.00     0.000 H 
BRANCH  17  20
ATOM     20  C1  <0> d           4.598  26.384   4.364  0.00  0.00    -0.686 C 
ATOM     21  H2  <0> d           3.657  25.888   4.127  0.00  0.00     0.000 H 
ATOM     22  H3  <0> d           4.657  27.329   3.824  0.00  0.00     0.000 H 
ATOM     23  H4  <0> d           5.430  25.745   4.069  0.00  0.00     0.000 H 
ENDBRANCH  17  20
ENDBRANCH  12  17
ENDBRANCH   5   8
ENDBRANCH   2   5
ENDBRANCH   1   2
BRANCH   1  24
ATOM     24  C10 <0> d          -1.052  28.477  10.462  0.00  0.00    -0.366 A 
ATOM     25  C15 <0> d          -2.237  27.827  10.774  0.00  0.00    -0.460 A 
ATOM     26  C14 <0> d          -2.251  26.847  11.747  0.00  0.00    -0.436 A 
ATOM     27  H17 <0> d          -3.148  28.083  10.252  0.00  0.00     0.000 H 
ATOM     28  C13 <0> d          -1.086  26.522  12.420  0.00  0.00    -0.467 A 
ATOM     29  H16 <0> d          -3.172  26.337  11.986  0.00  0.00     0.000 H 
ATOM     30  C12 <0> d           0.095  27.173  12.115  0.00  0.00    -0.551 A 
ATOM     31  C11 <0> d           0.115  28.150  11.137  0.00  0.00    -0.579 A 
ATOM     32  H15 <0> d           1.003  26.918  12.641  0.00  0.00     0.000 H 
ATOM     33  H14 <0> d           1.038  28.657  10.899  0.00  0.00     0.000 H 
BRANCH  28  34
ATOM     34  C16 <0> d          -1.105  25.458  13.486  0.00  0.00    -0.506 C 
ATOM     35  H18 <0> d          -0.104  25.343  13.901  0.00  0.00     0.000 H 
ATOM     36  H19 <0> d          -1.796  25.748  14.276  0.00  0.00     0.000 H 
BRANCH  34  37
ATOM     37  C17 <0> d          -1.558  24.131  12.874  0.00  0.00    -0.346 A 
ATOM     38  H1  <0> d          -2.366  24.283  12.157  0.00  0.00     0.000 H 
ATOM     39  S1  <0> d          -0.147  23.228  12.110  0.00  0.00    -0.317 SA
ATOM     40  C19 <0> d          -0.201  21.781  13.159  0.00  0.00    -0.235 A 
ATOM     41  N2  <0> d          -1.227  22.027  13.995  0.00  0.00    -0.367 N 
ATOM     42  O3  <0> d           0.519  20.803  13.125  0.00  0.00    -0.218 OA
ATOM     43  C18 <0> d          -1.955  23.131  13.951  0.00  0.00    -0.398 A 
ATOM     44  H20 <0> d          -1.443  21.361  14.667  0.00  0.00     0.000 HD
ATOM     45  O2  <0> d          -2.876  23.331  14.714  0.00  0.00    -0.806 OA
ENDBRANCH  34  37
ENDBRANCH  28  34
ENDBRANCH   1  24
TORSDOF 8
ENDMDL
